<?xml version="1.0" encoding="UTF-8"?>

<!-- generated on 2023-05-13 13:46:42.748835 by randomTrips.py v1_16_0+0000-94ec4c6cd72
<configuration>
    <end value="3600"/>
    <length value="True"/>
    <net-file value=".\sumo\net.net.xml"/>
    <route-file value=".\sumo\routes.rou.xml"/>
</configuration>
-->

<routes xmlns:xsi="http://www.w3.org/2001/XMLSchema-instance" xsi:noNamespaceSchemaLocation="http://sumo.dlr.de/xsd/routes_file.xsd">
    <trip id="0" depart="0.00" from="119622377#0" to="-116948910#0"/>
    <trip id="1" depart="1.00" from="-288664379#1" to="-186174965#2"/>
    <trip id="2" depart="2.00" from="314361439#1" to="186174927#9"/>
    <trip id="3" depart="3.00" from="68526688#4" to="-119442054#0"/>
    <trip id="4" depart="4.00" from="-864183426#1" to="-116948944#1"/>
    <trip id="5" depart="5.00" from="-186174860#3" to="116992040#0"/>
    <trip id="6" depart="6.00" from="-116933487#0" to="-119742022#1"/>
    <trip id="7" depart="7.00" from="119742029#0" to="119442075#1"/>
    <trip id="8" depart="8.00" from="-186174889" to="119546828#2"/>
    <trip id="9" depart="9.00" from="344175972#0" to="-1098408843#0"/>
    <trip id="10" depart="10.00" from="344175967#2" to="186954381"/>
    <trip id="11" depart="11.00" from="-602687086#1" to="-119562240#3"/>
    <trip id="12" depart="12.00" from="68551994#4" to="-602682213#6"/>
    <trip id="13" depart="13.00" from="-119442055" to="-119442092#2"/>
    <trip id="14" depart="14.00" from="437671317" to="119562193#2"/>
    <trip id="15" depart="15.00" from="344175967#8" to="187195973#6"/>
    <trip id="16" depart="16.00" from="119442054#6" to="68556487#1"/>
    <trip id="17" depart="17.00" from="-68540169#0" to="119524813"/>
    <trip id="18" depart="18.00" from="429310055#8" to="119562263#0"/>
    <trip id="19" depart="19.00" from="550166693#8" to="119537548#0"/>
    <trip id="20" depart="20.00" from="187076640#0" to="-116953579#0"/>
    <trip id="21" depart="21.00" from="-186793696#0" to="-428624429#5"/>
    <trip id="22" depart="22.00" from="-119441978#2" to="-186793793"/>
    <trip id="23" depart="23.00" from="-119442093#1" to="-315553406#9"/>
    <trip id="24" depart="24.00" from="119573448#0" to="-68534832#4"/>
    <trip id="25" depart="25.00" from="-68534842#0" to="-163830893#1"/>
    <trip id="26" depart="26.00" from="-187195942#5" to="68540181#4"/>
    <trip id="27" depart="27.00" from="119741996#0" to="119562232#4"/>
    <trip id="28" depart="28.00" from="-119562286#0" to="187195973#5"/>
    <trip id="29" depart="29.00" from="-119562253#3" to="-68540178#2"/>
    <trip id="30" depart="30.00" from="885284528#0" to="119573433"/>
    <trip id="31" depart="31.00" from="119524849#2" to="186793702#2"/>
    <trip id="32" depart="32.00" from="429469564#1" to="320476821#3"/>
    <trip id="33" depart="33.00" from="-186793700#2" to="-116948964#0"/>
    <trip id="34" depart="34.00" from="-437789630#2" to="-187195963"/>
    <trip id="35" depart="35.00" from="-163830875#0" to="68540187#2"/>
    <trip id="36" depart="36.00" from="602680118#7" to="-437784495"/>
    <trip id="37" depart="37.00" from="163830869" to="-68551994#3"/>
    <trip id="38" depart="38.00" from="68534832#4" to="1153345290"/>
    <trip id="39" depart="39.00" from="-187076737#0" to="-187076622#3"/>
    <trip id="40" depart="40.00" from="119524867#1" to="-187076733#0"/>
    <trip id="41" depart="41.00" from="119546842#0" to="68527704#0"/>
    <trip id="42" depart="42.00" from="-68552003#6" to="-186174927#7"/>
    <trip id="43" depart="43.00" from="995462049#0" to="116992085#3"/>
    <trip id="44" depart="44.00" from="-119442054#12" to="-116953585#6"/>
    <trip id="45" depart="45.00" from="-119524843#1" to="119562311#0"/>
    <trip id="46" depart="46.00" from="328620366#0" to="-885144203#0"/>
    <trip id="47" depart="47.00" from="-116992055#2" to="-68540185"/>
    <trip id="48" depart="48.00" from="987273515" to="119442024#2"/>
    <trip id="49" depart="49.00" from="68554775#0" to="550165813#4"/>
    <trip id="50" depart="50.00" from="-1098666083#1" to="187076739"/>
    <trip id="51" depart="51.00" from="186793707#3" to="119442047#6"/>
    <trip id="52" depart="52.00" from="-187195942#4" to="119573442"/>
    <trip id="53" depart="53.00" from="-119524849#1" to="1059459860#1"/>
    <trip id="54" depart="54.00" from="1152775342" to="68551945#0"/>
    <trip id="55" depart="55.00" from="602674623" to="-187076734#1"/>
    <trip id="56" depart="56.00" from="116992023#2" to="-119573397#0"/>
    <trip id="57" depart="57.00" from="68530994#0" to="602664318#2"/>
    <trip id="58" depart="58.00" from="-429310064#1" to="119573418#3"/>
    <trip id="59" depart="59.00" from="119562255" to="-119562234#0"/>
    <trip id="60" depart="60.00" from="317310792#2" to="119442054#2"/>
    <trip id="61" depart="61.00" from="320595936#14" to="119442027#2"/>
    <trip id="62" depart="62.00" from="-1059459860#0" to="-602665128#1"/>
    <trip id="63" depart="63.00" from="-1152725991#0" to="68540167#1"/>
    <trip id="64" depart="64.00" from="602681274#5" to="429310043#2"/>
    <trip id="65" depart="65.00" from="-429469553#9" to="-116992033#3"/>
    <trip id="66" depart="66.00" from="602681083#1" to="68543258#1"/>
    <trip id="67" depart="67.00" from="-119442027#4" to="116953575#3"/>
    <trip id="68" depart="68.00" from="-119441948#5" to="316476715#11"/>
    <trip id="69" depart="69.00" from="319649659#2" to="-119537583#1"/>
    <trip id="70" depart="70.00" from="116948995#5" to="119442091#0"/>
    <trip id="71" depart="71.00" from="-187076737#3" to="602665129"/>
    <trip id="72" depart="72.00" from="-884935261" to="-173986883#6"/>
    <trip id="73" depart="73.00" from="119442067" to="187195973#8"/>
    <trip id="74" depart="74.00" from="-119741946#1" to="-437650871#1"/>
    <trip id="75" depart="75.00" from="987149746#1" to="119622467#3"/>
    <trip id="76" depart="76.00" from="1096354535" to="119441964#6"/>
    <trip id="77" depart="77.00" from="-119537526#0" to="-186793691#1"/>
    <trip id="78" depart="78.00" from="-602682213#4" to="119546826#0"/>
    <trip id="79" depart="79.00" from="-186793704#1" to="-186174941#0"/>
    <trip id="80" depart="80.00" from="-119441963#0" to="119562321#0"/>
    <trip id="81" depart="81.00" from="-186793700#1" to="68530970#5"/>
    <trip id="82" depart="82.00" from="550166690#3" to="-119441971#3"/>
    <trip id="83" depart="83.00" from="-186954325#3" to="173986883#6"/>
    <trip id="84" depart="84.00" from="-163830893#2" to="-119546828#0"/>
    <trip id="85" depart="85.00" from="68540183#16" to="119524882#0"/>
    <trip id="86" depart="86.00" from="116948984" to="323237200#4"/>
    <trip id="87" depart="87.00" from="344175967#9" to="-119622383#0"/>
    <trip id="88" depart="88.00" from="-119442078#5" to="-987273520"/>
    <trip id="89" depart="89.00" from="-884935267" to="116948932#0"/>
    <trip id="90" depart="90.00" from="187195974#6" to="186174864#0"/>
    <trip id="91" depart="91.00" from="864183419#0" to="-119524813"/>
    <trip id="92" depart="92.00" from="-68552026#1" to="-602704065#0"/>
    <trip id="93" depart="93.00" from="550166693#6" to="-187076633#3"/>
    <trip id="94" depart="94.00" from="-119573447#1" to="111904355#0"/>
    <trip id="95" depart="95.00" from="-864183426#1" to="-316471804#5"/>
    <trip id="96" depart="96.00" from="-187076627#2" to="68534851#5"/>
    <trip id="97" depart="97.00" from="1098660745" to="550165814"/>
    <trip id="98" depart="98.00" from="119524831#0" to="-116953615#0"/>
    <trip id="99" depart="99.00" from="998966289#1" to="429310090"/>
    <trip id="100" depart="100.00" from="68552091#1" to="68540154#2"/>
    <trip id="101" depart="101.00" from="437789628#0" to="-119562285#0"/>
    <trip id="102" depart="102.00" from="116953598" to="-186174860#2"/>
    <trip id="103" depart="103.00" from="-68552012#5" to="-116992043#2"/>
    <trip id="104" depart="104.00" from="-68540169#2" to="834755981"/>
    <trip id="105" depart="105.00" from="-187076738#1" to="321068326#9"/>
    <trip id="106" depart="106.00" from="1154059571" to="-885284525"/>
    <trip id="107" depart="107.00" from="68551994#5" to="987149760#0"/>
    <trip id="108" depart="108.00" from="119524843#7" to="187076729#0"/>
    <trip id="109" depart="109.00" from="-119562223#0" to="-429310082"/>
    <trip id="110" depart="110.00" from="68552082#6" to="119537557#10"/>
    <trip id="111" depart="111.00" from="119442078#6" to="315553410#2"/>
    <trip id="112" depart="112.00" from="-116991979" to="119537581"/>
    <trip id="113" depart="113.00" from="116992051#1" to="437869119#1"/>
    <trip id="114" depart="114.00" from="-119562230#6" to="68552009#1"/>
    <trip id="115" depart="115.00" from="-119441982#0" to="-119573451#1"/>
    <trip id="116" depart="116.00" from="119562182#0" to="186174916"/>
    <trip id="117" depart="117.00" from="-186793781" to="-119537537#0"/>
    <trip id="118" depart="118.00" from="67712791#0" to="-187076621#0"/>
    <trip id="119" depart="119.00" from="119562180#5" to="119562272#6"/>
    <trip id="120" depart="120.00" from="-825459941#1" to="119537577#0"/>
    <trip id="121" depart="121.00" from="119442001#7" to="68540177#3"/>
    <trip id="122" depart="122.00" from="-119742023#4" to="187076711#1"/>
    <trip id="123" depart="123.00" from="-186954329#3" to="-68551994#4"/>
    <trip id="124" depart="124.00" from="186174926" to="-429313619"/>
    <trip id="125" depart="125.00" from="-437843102" to="316471801#13"/>
    <trip id="126" depart="126.00" from="-119441966#1" to="1153322264"/>
    <trip id="127" depart="127.00" from="998966285" to="987273515"/>
    <trip id="128" depart="128.00" from="-119441969#3" to="-186174860#11"/>
    <trip id="129" depart="129.00" from="-187076738#1" to="68540177#10"/>
    <trip id="130" depart="130.00" from="602682213#6" to="602674167#8"/>
    <trip id="131" depart="131.00" from="-68534837" to="-119562253#1"/>
    <trip id="132" depart="132.00" from="429313619" to="187076620#0"/>
    <trip id="133" depart="133.00" from="119562260#3" to="864183426#1"/>
    <trip id="134" depart="134.00" from="125895905#0" to="-1098599682#1"/>
    <trip id="135" depart="135.00" from="370053546#2" to="-429313616#1"/>
    <trip id="136" depart="136.00" from="17503330#0" to="68540183#2"/>
    <trip id="137" depart="137.00" from="-119537589#3" to="-119524880"/>
    <trip id="138" depart="138.00" from="-119524835#1" to="119524822"/>
    <trip id="139" depart="139.00" from="-258330620#7" to="119562207"/>
    <trip id="140" depart="140.00" from="187076737#0" to="-125731698#5"/>
    <trip id="141" depart="141.00" from="119573438#0" to="-187076738#1"/>
    <trip id="142" depart="142.00" from="116953617#1" to="68530970#4"/>
    <trip id="143" depart="143.00" from="437650871#3" to="-119442074#1"/>
    <trip id="144" depart="144.00" from="-884935267" to="-314746210#8"/>
    <trip id="145" depart="145.00" from="-1080871807#1" to="319652399#10"/>
    <trip id="146" depart="146.00" from="119573457#0" to="-187076729#1"/>
    <trip id="147" depart="147.00" from="314794533#12" to="119524812#0"/>
    <trip id="148" depart="148.00" from="-943444123#1" to="-1098691722#0"/>
    <trip id="149" depart="149.00" from="-119441971#6" to="602682206"/>
    <trip id="150" depart="150.00" from="68530971#2" to="119442078#4"/>
    <trip id="151" depart="151.00" from="429391900#1" to="119537568#3"/>
    <trip id="152" depart="152.00" from="-119562180#0" to="-119537577#0"/>
    <trip id="153" depart="153.00" from="-429469562#1" to="68527708#1"/>
    <trip id="154" depart="154.00" from="330424995#10" to="550165813#4"/>
    <trip id="155" depart="155.00" from="68527712#3" to="-163830973#0"/>
    <trip id="156" depart="156.00" from="-187076626#3" to="-119524833#3"/>
    <trip id="157" depart="157.00" from="321068326#15" to="602682212#1"/>
    <trip id="158" depart="158.00" from="-68552067#5" to="119562282#0"/>
    <trip id="159" depart="159.00" from="-119562217" to="68540168#4"/>
    <trip id="160" depart="160.00" from="571053953#1" to="68560883#3"/>
    <trip id="161" depart="161.00" from="344353322#11" to="602680727#5"/>
    <trip id="162" depart="162.00" from="-1168890434" to="288664379#3"/>
    <trip id="163" depart="163.00" from="-602674167#10" to="68540169#3"/>
    <trip id="164" depart="164.00" from="339429575#2" to="550166693#0"/>
    <trip id="165" depart="165.00" from="344353322#11" to="-187195951#0"/>
    <trip id="166" depart="166.00" from="325468032#38" to="-119524851#0"/>
    <trip id="167" depart="167.00" from="602670326#3" to="549566270"/>
    <trip id="168" depart="168.00" from="-186174927#9" to="344376646#0"/>
    <trip id="169" depart="169.00" from="116948910#4" to="-429469553#11"/>
    <trip id="170" depart="170.00" from="328620366#3" to="-186793704#5"/>
    <trip id="171" depart="171.00" from="-1153322264" to="-119622441#0"/>
    <trip id="172" depart="172.00" from="-602670325#1" to="550166693#2"/>
    <trip id="173" depart="173.00" from="68552067#6" to="-316471804#7"/>
    <trip id="174" depart="174.00" from="119622383#0" to="-68552016#1"/>
    <trip id="175" depart="175.00" from="778342442#2" to="119442047#19"/>
    <trip id="176" depart="176.00" from="68540183#6" to="-119524879#3"/>
    <trip id="177" depart="177.00" from="68554772#1" to="-119573397#0"/>
    <trip id="178" depart="178.00" from="68552026#7" to="-187195942#3"/>
    <trip id="179" depart="179.00" from="-119524839#2" to="1042491115#0"/>
    <trip id="180" depart="180.00" from="187195974#5" to="-437671317"/>
    <trip id="181" depart="181.00" from="119562240#8" to="119441942"/>
    <trip id="182" depart="182.00" from="-68543042#1" to="119537543#1"/>
    <trip id="183" depart="183.00" from="-187076655" to="187076642"/>
    <trip id="184" depart="184.00" from="-1080871807#1" to="68540152#1"/>
    <trip id="185" depart="185.00" from="119442064#3" to="187076734#1"/>
    <trip id="186" depart="186.00" from="314794533#21" to="17503365#0"/>
    <trip id="187" depart="187.00" from="-68530992#0" to="-119441969#4"/>
    <trip id="188" depart="188.00" from="17503330#6" to="-602674165"/>
    <trip id="189" depart="189.00" from="-437671319#3" to="437650871#2"/>
    <trip id="190" depart="190.00" from="187195943#0" to="-429313632#4"/>
    <trip id="191" depart="191.00" from="-429469564#4" to="-68556486#0"/>
    <trip id="192" depart="192.00" from="-68552026#1" to="-429310055#6"/>
    <trip id="193" depart="193.00" from="-119537555#1" to="-882702119"/>
    <trip id="194" depart="194.00" from="68540187#0" to="186174942"/>
    <trip id="195" depart="195.00" from="68530967#1" to="119562255"/>
    <trip id="196" depart="196.00" from="-429311759#1" to="119442083#1"/>
    <trip id="197" depart="197.00" from="-1042491115#0" to="-370053557#0"/>
    <trip id="198" depart="198.00" from="-987149760#0" to="119537557#15"/>
    <trip id="199" depart="199.00" from="163828725#2" to="116948914#0"/>
    <trip id="200" depart="200.00" from="1098599682#0" to="-186174860#2"/>
    <trip id="201" depart="201.00" from="116948986" to="68527713#1"/>
    <trip id="202" depart="202.00" from="330424991" to="-119562298#0"/>
    <trip id="203" depart="203.00" from="-119442027#1" to="119441961#0"/>
    <trip id="204" depart="204.00" from="119573418#4" to="-602682209#0"/>
    <trip id="205" depart="205.00" from="370053557#0" to="316471801#10"/>
    <trip id="206" depart="206.00" from="186174927#9" to="-186793691#0"/>
    <trip id="207" depart="207.00" from="-119622490#1" to="-116948906#1"/>
    <trip id="208" depart="208.00" from="-186954391#1" to="116948976"/>
    <trip id="209" depart="209.00" from="437847880#1" to="-119441972#1"/>
    <trip id="210" depart="210.00" from="-68560885#4" to="119562316#0"/>
    <trip id="211" depart="211.00" from="-119622380#1" to="186954369"/>
    <trip id="212" depart="212.00" from="116991980" to="-186954399#2"/>
    <trip id="213" depart="213.00" from="163830874#3" to="-1098399495"/>
    <trip id="214" depart="214.00" from="316471803#17" to="319649659#3"/>
    <trip id="215" depart="215.00" from="-119524833#3" to="-885315909"/>
    <trip id="216" depart="216.00" from="-119562311#0" to="68551994#1"/>
    <trip id="217" depart="217.00" from="119441974#0" to="-116953609#7"/>
    <trip id="218" depart="218.00" from="-187076623#0" to="437652917#3"/>
    <trip id="219" depart="219.00" from="116933465" to="330424995#7"/>
    <trip id="220" depart="220.00" from="186174860#9" to="884935259"/>
    <trip id="221" depart="221.00" from="119562188#1" to="68543666#2"/>
    <trip id="222" depart="222.00" from="68526688#10" to="119562242#2"/>
    <trip id="223" depart="223.00" from="187195942#3" to="116992028#0"/>
    <trip id="224" depart="224.00" from="429310084#0" to="119442082#1"/>
    <trip id="225" depart="225.00" from="68527708#1" to="314746209#9"/>
    <trip id="226" depart="226.00" from="116948993" to="-187076711#2"/>
    <trip id="227" depart="227.00" from="-186954411#1" to="119573415#0"/>
    <trip id="228" depart="228.00" from="319649659#2" to="119441972#0"/>
    <trip id="229" depart="229.00" from="119573359" to="-288665018#1"/>
    <trip id="230" depart="230.00" from="-119441974#3" to="-366022370"/>
    <trip id="231" depart="231.00" from="-258330620#13" to="-571053950#0"/>
    <trip id="232" depart="232.00" from="119442070" to="-119562167#1"/>
    <trip id="233" depart="233.00" from="-186793708#7" to="186954329#6"/>
    <trip id="234" depart="234.00" from="187076653" to="-119441942"/>
    <trip id="235" depart="235.00" from="-68554753" to="119442064#5"/>
    <trip id="236" depart="236.00" from="-68560903#0" to="-163830880"/>
    <trip id="237" depart="237.00" from="-841969852" to="68530968"/>
    <trip id="238" depart="238.00" from="119546838#0" to="186954357#8"/>
    <trip id="239" depart="239.00" from="550165813#2" to="317310791#9"/>
    <trip id="240" depart="240.00" from="-68540172" to="-1098399496#2"/>
    <trip id="241" depart="241.00" from="-68527713#6" to="316471801#9"/>
    <trip id="242" depart="242.00" from="548913564" to="68543673"/>
    <trip id="243" depart="243.00" from="-778342454#1" to="315553410#0"/>
    <trip id="244" depart="244.00" from="119442093#1" to="119562192#11"/>
    <trip id="245" depart="245.00" from="-186174889" to="-186174927#9"/>
    <trip id="246" depart="246.00" from="1080871807#0" to="-116948939#0"/>
    <trip id="247" depart="247.00" from="-602682204" to="186174959#1"/>
    <trip id="248" depart="248.00" from="-68552036#1" to="-119562283#1"/>
    <trip id="249" depart="249.00" from="116948958#1" to="-119537579#0"/>
    <trip id="250" depart="250.00" from="119562311#2" to="-116948923#1"/>
    <trip id="251" depart="251.00" from="-68551956#0" to="119524863#0"/>
    <trip id="252" depart="252.00" from="-116933489#2" to="119573456#2"/>
    <trip id="253" depart="253.00" from="-119546810#2" to="116933489#1"/>
    <trip id="254" depart="254.00" from="-116953582" to="-68540174#1"/>
    <trip id="255" depart="255.00" from="-163830882#0" to="-602670322"/>
    <trip id="256" depart="256.00" from="317310791#5" to="-68540174#1"/>
    <trip id="257" depart="257.00" from="316471803#32" to="429310043#4"/>
    <trip id="258" depart="258.00" from="-187076638#0" to="-119442027#3"/>
    <trip id="259" depart="259.00" from="-1144662565" to="119442054#2"/>
    <trip id="260" depart="260.00" from="998970395#0" to="-68527713#3"/>
    <trip id="261" depart="261.00" from="119742031" to="320595936#14"/>
    <trip id="262" depart="262.00" from="125729975#0" to="316471803#17"/>
    <trip id="263" depart="263.00" from="68543667#0" to="-119742023#4"/>
    <trip id="264" depart="264.00" from="-1152775326" to="-119562230#6"/>
    <trip id="265" depart="265.00" from="-119537549" to="17503330#3"/>
    <trip id="266" depart="266.00" from="119524873#0" to="-186174925"/>
    <trip id="267" depart="267.00" from="186954417" to="318361993#7"/>
    <trip id="268" depart="268.00" from="-119562272#7" to="119562227#3"/>
    <trip id="269" depart="269.00" from="316471801#10" to="-119524878#0"/>
    <trip id="270" depart="270.00" from="370054297#0" to="68552034#1"/>
    <trip id="271" depart="271.00" from="-119524837#1" to="-116948913"/>
    <trip id="272" depart="272.00" from="-437650871#2" to="186174942"/>
    <trip id="273" depart="273.00" from="68551999" to="-68551999"/>
    <trip id="274" depart="274.00" from="187076723#1" to="-119441978#1"/>
    <trip id="275" depart="275.00" from="186954331#1" to="119562305"/>
    <trip id="276" depart="276.00" from="-119524812#0" to="319652400#2"/>
    <trip id="277" depart="277.00" from="437878320#0" to="119562180#4"/>
    <trip id="278" depart="278.00" from="-119537526#0" to="778342454#1"/>
    <trip id="279" depart="279.00" from="323237200#4" to="-68527708#0"/>
    <trip id="280" depart="280.00" from="-954132323#2" to="-68534851#4"/>
    <trip id="281" depart="281.00" from="116992087" to="-602715529#2"/>
    <trip id="282" depart="282.00" from="437819683#1" to="370053547#0"/>
    <trip id="283" depart="283.00" from="-119524831#4" to="68552009#1"/>
    <trip id="284" depart="284.00" from="119573447#0" to="428624442#5"/>
    <trip id="285" depart="285.00" from="187076667" to="1080871807#1"/>
    <trip id="286" depart="286.00" from="288665011#3" to="68552041#0"/>
    <trip id="287" depart="287.00" from="-187195971#0" to="340328591#0"/>
    <trip id="288" depart="288.00" from="119442064#1" to="116953558"/>
    <trip id="289" depart="289.00" from="1069128089" to="187195974#5"/>
    <trip id="290" depart="290.00" from="-187195952#0" to="437789630#4"/>
    <trip id="291" depart="291.00" from="429310086#0" to="-119442052"/>
    <trip id="292" depart="292.00" from="602682769#1" to="-186954399#2"/>
    <trip id="293" depart="293.00" from="116948943" to="119562237#2"/>
    <trip id="294" depart="294.00" from="-68540169#2" to="-116948936#1"/>
    <trip id="295" depart="295.00" from="437878320#8" to="-119573418#0"/>
    <trip id="296" depart="296.00" from="-163830884#3" to="328620366#20"/>
    <trip id="297" depart="297.00" from="-602687086#1" to="602680121#1"/>
    <trip id="298" depart="298.00" from="187076626#4" to="-314746210#0"/>
    <trip id="299" depart="299.00" from="-1098599679" to="68543258#4"/>
    <trip id="300" depart="300.00" from="-119442027#4" to="187076737#0"/>
    <trip id="301" depart="301.00" from="116953617#2" to="316471805#10"/>
    <trip id="302" depart="302.00" from="186954331#1" to="119622380#0"/>
    <trip id="303" depart="303.00" from="116974708#3" to="328619465#1"/>
    <trip id="304" depart="304.00" from="-119442056" to="-186174952#0"/>
    <trip id="305" depart="305.00" from="186954356" to="-429469557"/>
    <trip id="306" depart="306.00" from="119546810#3" to="116948966#2"/>
    <trip id="307" depart="307.00" from="119442047#1" to="-935256073#1"/>
    <trip id="308" depart="308.00" from="315561697#4" to="-602674167#10"/>
    <trip id="309" depart="309.00" from="187076634#0" to="-258330620#9"/>
    <trip id="310" depart="310.00" from="-187076636#0" to="-119537540#1"/>
    <trip id="311" depart="311.00" from="-119573462#0" to="-119537536#1"/>
    <trip id="312" depart="312.00" from="119442054#5" to="317137443#3"/>
    <trip id="313" depart="313.00" from="-119573411#5" to="-186174907"/>
    <trip id="314" depart="314.00" from="116953589#0" to="187195950"/>
    <trip id="315" depart="315.00" from="68560886#3" to="119441977#3"/>
    <trip id="316" depart="316.00" from="-328619464#1" to="-119524828#0"/>
    <trip id="317" depart="317.00" from="-119622380#0" to="-186793704#4"/>
    <trip id="318" depart="318.00" from="-119562321#0" to="-111940062#7"/>
    <trip id="319" depart="319.00" from="119442051#0" to="-288665014#2"/>
    <trip id="320" depart="320.00" from="68560876#11" to="119524825"/>
    <trip id="321" depart="321.00" from="186954396#1" to="-119537568#5"/>
    <trip id="322" depart="322.00" from="602665128#1" to="116953608#4"/>
    <trip id="323" depart="323.00" from="602674157#0" to="119537529#3"/>
    <trip id="324" depart="324.00" from="116948966#3" to="1096345799"/>
    <trip id="325" depart="325.00" from="-119573403" to="-116953621#0"/>
    <trip id="326" depart="326.00" from="68540188#2" to="116948990#0"/>
    <trip id="327" depart="327.00" from="428624430#6" to="-68552026#1"/>
    <trip id="328" depart="328.00" from="-119441971#2" to="119562313#2"/>
    <trip id="329" depart="329.00" from="-116953607#4" to="-119562214#4"/>
    <trip id="330" depart="330.00" from="119524872#1" to="-429391925#2"/>
    <trip id="331" depart="331.00" from="966641742" to="-119537529#1"/>
    <trip id="332" depart="332.00" from="319649656#19" to="119562223#0"/>
    <trip id="333" depart="333.00" from="328619465#3" to="-186793696#3"/>
    <trip id="334" depart="334.00" from="119442001#3" to="111930436#12"/>
    <trip id="335" depart="335.00" from="1098643996" to="550165813#2"/>
    <trip id="336" depart="336.00" from="885285191" to="-429469553#3"/>
    <trip id="337" depart="337.00" from="119562304#0" to="119562234#1"/>
    <trip id="338" depart="338.00" from="314746209#8" to="68543258#3"/>
    <trip id="339" depart="339.00" from="-125731698#2" to="-173986883#0"/>
    <trip id="340" depart="340.00" from="163830973#2" to="-119562247#6"/>
    <trip id="341" depart="341.00" from="-119562295" to="-119441977#0"/>
    <trip id="342" depart="342.00" from="-1080871807#1" to="111930436#12"/>
    <trip id="343" depart="343.00" from="119562180#2" to="-428624442#7"/>
    <trip id="344" depart="344.00" from="-186793709#0" to="187076636#5"/>
    <trip id="345" depart="345.00" from="187076636#0" to="1152725992"/>
    <trip id="346" depart="346.00" from="186793809" to="68534853"/>
    <trip id="347" depart="347.00" from="325468032#40" to="119562294#7"/>
    <trip id="348" depart="348.00" from="173679261#0" to="68540177#11"/>
    <trip id="349" depart="349.00" from="-885144228" to="119442074#1"/>
    <trip id="350" depart="350.00" from="119741973#0" to="68530981#1"/>
    <trip id="351" depart="351.00" from="429310033#5" to="-119441971#4"/>
    <trip id="352" depart="352.00" from="-119562260#2" to="-429469564#0"/>
    <trip id="353" depart="353.00" from="316471801#17" to="119524874#2"/>
    <trip id="354" depart="354.00" from="-366022375" to="-119537563"/>
    <trip id="355" depart="355.00" from="186793820#0" to="186954390#2"/>
    <trip id="356" depart="356.00" from="68543050#0" to="116991999"/>
    <trip id="357" depart="357.00" from="116991974" to="-119442025#1"/>
    <trip id="358" depart="358.00" from="-116948981#0" to="-995462057"/>
    <trip id="359" depart="359.00" from="-571057283#0" to="-187076638#6"/>
    <trip id="360" depart="360.00" from="-119442054#3" to="68552012#7"/>
    <trip id="361" depart="361.00" from="429391908#2" to="119537536#2"/>
    <trip id="362" depart="362.00" from="68543670#1" to="998967425#0"/>
    <trip id="363" depart="363.00" from="186174927#6" to="-258330620#0"/>
    <trip id="364" depart="364.00" from="-116948981#7" to="316471804#3"/>
    <trip id="365" depart="365.00" from="116948969#8" to="119622490#1"/>
    <trip id="366" depart="366.00" from="68534834#8" to="-119573416"/>
    <trip id="367" depart="367.00" from="119546852" to="119573395#1"/>
    <trip id="368" depart="368.00" from="116974709#0" to="-119442066"/>
    <trip id="369" depart="369.00" from="-68527704#0" to="-602680727#5"/>
    <trip id="370" depart="370.00" from="186174925" to="549418674#4"/>
    <trip id="371" depart="371.00" from="-602674159" to="186954329#3"/>
    <trip id="372" depart="372.00" from="-366022371" to="68543050#0"/>
    <trip id="373" depart="373.00" from="346410410#2" to="119442092#2"/>
    <trip id="374" depart="374.00" from="1154059571" to="-437784491#1"/>
    <trip id="375" depart="375.00" from="-602664314#0" to="68554753"/>
    <trip id="376" depart="376.00" from="-68552034#1" to="119441959#0"/>
    <trip id="377" depart="377.00" from="885144203#1" to="119742054#0"/>
    <trip id="378" depart="378.00" from="119442079#1" to="-68560891#0"/>
    <trip id="379" depart="379.00" from="-119573418#4" to="-68530991#1"/>
    <trip id="380" depart="380.00" from="316471806#1" to="119562295"/>
    <trip id="381" depart="381.00" from="317137443#8" to="-125731698#5"/>
    <trip id="382" depart="382.00" from="119524826#1" to="68540162#1"/>
    <trip id="383" depart="383.00" from="1096354535" to="186954382#0"/>
    <trip id="384" depart="384.00" from="-119537526#2" to="68556487#1"/>
    <trip id="385" depart="385.00" from="119562253#3" to="-186954370"/>
    <trip id="386" depart="386.00" from="-119562236#1" to="119442093#5"/>
    <trip id="387" depart="387.00" from="119524834" to="-119442078#5"/>
    <trip id="388" depart="388.00" from="943444123#0" to="68530989#1"/>
    <trip id="389" depart="389.00" from="116948919" to="-119537526#1"/>
    <trip id="390" depart="390.00" from="429311759#1" to="116991984#0"/>
    <trip id="391" depart="391.00" from="187076733#0" to="116992081#1"/>
    <trip id="392" depart="392.00" from="-258330628#1" to="429310082"/>
    <trip id="393" depart="393.00" from="758849760" to="-186954398#1"/>
    <trip id="394" depart="394.00" from="119524832#2" to="-68543042#3"/>
    <trip id="395" depart="395.00" from="68540148" to="116992068#0"/>
    <trip id="396" depart="396.00" from="602682206" to="550166692"/>
    <trip id="397" depart="397.00" from="-288665014#0" to="325468032#33"/>
    <trip id="398" depart="398.00" from="-68560891#0" to="68540177#2"/>
    <trip id="399" depart="399.00" from="119441942" to="366206854#1"/>
    <trip id="400" depart="400.00" from="-328619464#1" to="-429311761#0"/>
    <trip id="401" depart="401.00" from="119562157#8" to="998966289#0"/>
    <trip id="402" depart="402.00" from="116974697#0" to="-119562212#1"/>
    <trip id="403" depart="403.00" from="119442064#3" to="-647572058#1"/>
    <trip id="404" depart="404.00" from="119524833#3" to="119442067"/>
    <trip id="405" depart="405.00" from="115838951" to="-571057283#1"/>
    <trip id="406" depart="406.00" from="-119573435#0" to="186954378#0"/>