<?xml version="1.0" encoding="UTF-8"?>

<!-- generated on 2023-05-13 14:09:20.723240 by $Id: ptlines2flows.py v1_3_1+0313-ccb31df3eb jakob.erdmann@dlr.de 2019-09-02 13:26:32 +0200 $ v1_16_0+0000-94ec4c6cd72
  options: -n .\sumo\net.net.xml -s .\sumo\additional.xml -l .\sumo\ptlines.xml -o .\sumo\flows.rou.xml -p 120 <doubleminus>use-osm-routes <doubleminus>types subway
-->

<routes xmlns:xsi="http://www.w3.org/2001/XMLSchema-instance" xsi:noNamespaceSchemaLocation="http://sumo.dlr.de/xsd/routes_file.xsd">
    <vType id="bus" vClass="bus" speedFactor="0.95"/>
    <vType id="tram" vClass="tram" speedFactor="1.0"/>
    <vType id="train" vClass="rail"/>
    <vType id="subway" vClass="rail_urban"/>
    <vType id="light_rail" vClass="rail_urban"/>
    <vType id="monorail" vClass="rail_urban"/>
    <vType id="trolleybus" vClass="bus" speedFactor="0.95"/>
    <vType id="minibus" vClass="bus" speedFactor="0.95"/>
    <vType id="share_taxi" vClass="taxi" speedFactor="0.95"/>
    <vType id="aerialway" vClass="rail_urban" length="2.5" width="2" personCapacity="4"/>
    <vType id="ferry" vClass="ship"/>
    <trip id="8_subway_L1:0" type="subway" depart="0" departLane="best" from="550454234" to="543026867" via="550454242 551970578 551970580 550454247 550454249">
        <stop busStop="5308410954" duration="30"/>
        <stop busStop="5308410955" duration="30"/>
        <stop busStop="5308410964" duration="30"/>
    </trip>
    <trip id="9_subway_L1:1" type="subway" depart="0" departLane="best" from="551979096" to="550454240" via="549752920 550454250 550454244 551970581 551970579">
        <stop busStop="5308514828" duration="30"/>
        <stop busStop="5310407365" duration="30"/>
        <stop busStop="5310407356" duration="30"/>
    </trip>
</routes>
