<configuration>
    <input>
        <net-file value="net.net.xml"/>
        <route-files value="routes.rou.xml,flows.rou.xml"/>
        <additional-files value="additional.xml"/>
    </input>
    <output>
        <fcd-output value="fcd.xml"/>
    </output>
    <time>
        <begin value="0"/>
        <end value="600"/>
    </time>
</configuration>