<?xml version="1.0" encoding="UTF-8"?>

<!-- generated on 2023-05-13 13:46:55.839045 by randomTrips.py v1_16_0+0000-94ec4c6cd72
<configuration>
    <end value="3600"/>
    <length value="True"/>
    <net-file value=".\sumo\net.net.xml"/>
    <route-file value=".\sumo\routes.rou.xml"/>
</configuration>
-->

<!-- generated on 2023-05-13 13:46:44 by Eclipse SUMO duarouter Version 1.16.0
<configuration xmlns:xsi="http://www.w3.org/2001/XMLSchema-instance" xsi:noNamespaceSchemaLocation="http://sumo.dlr.de/xsd/duarouterConfiguration.xsd">

    <input>
        <net-file value=".\sumo\net.net.xml"/>
        <route-files value="trips.trips.xml"/>
    </input>

    <output>
        <output-file value=".\sumo\routes.rou.xml"/>
        <alternatives-output value="NUL"/>
    </output>

    <time>
        <begin value="0"/>
        <end value="3600"/>
    </time>

    <report>
        <no-warnings value="true"/>
        <ignore-errors value="true"/>
        <no-step-log value="true"/>
    </report>

</configuration>
-->

<routes xmlns:xsi="http://www.w3.org/2001/XMLSchema-instance" xsi:noNamespaceSchemaLocation="http://sumo.dlr.de/xsd/routes_file.xsd">
    <vehicle id="0" depart="0.00">
        <route edges="119622377#0 119622377#1 119622383#2 119622383#3 119622383#4 119622383#5 119622383#6 119622383#7 119622383#8 119622383#9 119622383#10 119622383#11 119573453#0 119573453#1 -328619474 -328620365 119562230#0 119562230#1 119562230#2 119562230#3 119562230#4 119562230#5 119562230#6 119562230#7 323714543#2 323714543#3 323714543#4 323714543#5 -119562191#13 -119562191#12 -119562191#11 -119562191#10 -119562191#9 -119562191#8 -119562191#7 -119562191#6 -119562191#5 -1152775335 -1152775334 -670350253 -119562208 17503330#3 17503330#4 17503330#5 17503330#6 319652399#0 319652399#1 319652399#2 319652399#3 319652399#4 319652399#5 319652399#6 319652399#7 319652399#8 319652399#9 319652399#10 319652399#11 319652399#12 319652399#13 319652399#14 173986882 338364082#0 338364082#1 338364082#2 314746209#0 314746209#1 314746209#2 314746209#3 314746209#4 314746209#5 314746209#6 314746209#7 314746209#8 314746209#9 314746209#10 314746209#11 314746209#12 314746209#13 314746209#14 314746209#15 314746209#16 314746209#17 314746209#18 314746209#19 314746209#20 314746209#21 314746209#22 314746209#23 344532531#0 344532531#1 173679261#0 173679261#1 173679261#2 -116948936#2 -116948936#1 -116948910#4 -116948910#3 -116948910#2 -116948910#1 -116948910#0"/>
    </vehicle>
    <vehicle id="1" depart="1.00">
        <route edges="-288664379#1 -111925580#1 -111925580#0 437882925#13 437882925#14 437882925#15 437882925#16 437882925#17 437882925#18 437882925#19 437882925#20 437882925#21 437882925#22 332736172#3 332736172#4 332736172#5 332736172#6 332736172#7 332736172#8 332736172#9 332736172#10 116992008#0 116992008#1 116992008#2 116992008#3 116992008#4 116992008#5 116992008#6 116992008#7 116992008#8 116992008#9 116992008#10 116992008#11 116992008#12 116992008#13 116992008#14 116992008#15 116992008#16 116992008#17 116992008#18 116992008#19 116992008#20 116992008#21 116992008#22 116992008#23 116992008#24 320523917#0 320523917#1 320523917#2 320523917#3 320523917#4 320523917#5 320523917#6 320523917#7 320523917#8 320523917#9 320523917#10 320523917#11 330424991 330424995#0 330424995#1 330424995#2 330424995#3 330424995#4 330424995#5 -429310033#10 -429310033#9 -429310033#8 -429310033#7 -429310033#6 -429310033#5 -429310033#4 -429310033#3 -429310033#2 -429310033#1 -429310033#0 -68530982#1 -68530982#0 68530979#4 -186174929#1 -186174929#0 1014243075#0 1014243075#1 885284525 -186174965#6 -186174965#5 -186174965#4 -186174965#3 -186174965#2"/>
    </vehicle>
    <vehicle id="2" depart="2.00">
        <route edges="314361439#1 -119562191#12 -119562191#11 -119562191#10 -119562191#9 -119562191#8 -119562191#7 -119562191#6 -119562191#5 -1152775335 -1152775334 -670350253 -119562208 17503330#3 17503330#4 17503330#5 17503330#6 319652399#0 319652399#1 319652399#2 319652399#3 319652399#4 319652399#5 319652399#6 319652399#7 319652399#8 319652399#9 319652399#10 319652399#11 319652399#12 319652399#13 319652399#14 173986882 116992050#0 116992050#1 332736172#0 332736172#1 332736172#2 332736172#3 332736172#4 332736172#5 332736172#6 332736172#7 332736172#8 332736172#9 332736172#10 116992008#0 116992008#1 116992008#2 116992008#3 116992008#4 116992008#5 116992008#6 116992008#7 116992008#8 116992008#9 116992008#10 116992008#11 116992008#12 116992008#13 116992008#14 116992008#15 116992008#16 116992008#17 116992008#18 116992008#19 116992008#20 116992008#21 116992008#22 116992008#23 116992008#24 320523917#0 320523917#1 320523917#2 320523917#3 320523917#4 320523917#5 320523917#6 320523917#7 320523917#8 320523917#9 320523917#10 320523917#11 330424991 330424995#0 330424995#1 330424995#2 330424995#3 330424995#4 330424995#5 -429310033#10 -429310033#9 -429310033#8 -429310033#7 -429310033#6 -429310033#5 -429310033#4 -429310033#3 -429310033#2 -429310033#1 -429310033#0 -68530982#1 -68530982#0 68530979#4 -186174929#1 -186174929#0 1014243075#0 1014243075#1 885284525 -186174965#6 -186174965#5 -186174965#4 -186174965#3 -186174965#2 186174946#0 186174927#0 186174927#1 186174927#2 186174927#3 186174927#4 186174927#5 186174927#6 186174927#7 186174927#8 186174927#9"/>
    </vehicle>
    <vehicle id="3" depart="3.00">
        <route edges="68526688#4 68526688#5 68526688#6 68526688#7 68526688#8 68526688#9 68526688#10 68526688#11 68526688#12 68540183#20 68540183#21 68540183#22 68540183#23 68540183#24 68540183#25 187195959#1 187195959#2 187195959#3 187195959#4 187195959#5 187195959#6 187195959#7 187195959#8 187195959#9 187195959#10 344175967#5 344175967#6 344175967#7 344175967#8 344175967#9 -119441948#9 -119441948#8 -119441948#7 -119442054#1 -119442054#0"/>
    </vehicle>
    <vehicle id="4" depart="4.00">
        <route edges="-864183426#1 -864183426#0 -825459941#1 -825459941#0 -825459942 -186174927#3 -186174927#2 -186174927#1 -186174927#0 -186174946#0 186174965#2 186174965#3 186174965#4 186174965#5 186174965#6 -885284525 -1014243075#1 -1014243075#0 186174929#0 186174929#1 -68530979#4 68530982#0 68530982#1 186174952#1 -987271448 -429310085#1 186174955 -68530963#1 -68530963#0 186954395#0 -1171885132 116948902#2 116948914#0 116948914#1 116948914#2 116948914#3 116948914#4 116948914#5 116948914#6 116948914#7 116948914#8 116948914#9 -186954397#1 -186954397#0 116948944#1 -116948944#1"/>
    </vehicle>
    <vehicle id="5" depart="5.00">
        <route edges="-186174860#3 -186174860#2 -186174860#1 -186174860#0 -111883112#1 -111883112#0 -116948959#3 -116948959#2 -116948959#1 -116948959#0 68560896#4 68560896#5 637987392 68560886#0 68560886#1 68560886#2 68560886#3 68560886#4 351470292#5 351470292#6 351470292#7 429310055#0 429310055#1 429310055#2 429310055#3 429310055#4 429310055#5 429310055#6 429310055#7 429310055#8 429310055#9 429310055#10 429310055#11 429310055#12 429310055#13 429310055#14 429310055#15 429310055#16 429310055#17 429310055#18 429310055#19 429310055#20 429310055#21 68560876#0 -116992040#3 -116992040#2 -116992040#1 -116992040#0 116992040#0"/>
    </vehicle>
    <vehicle id="6" depart="6.00">
        <route edges="-116933487#0 116933487#0 116933487#1 429310085#0 186174955 -68530963#1 -68530963#0 186954395#0 186954395#1 -186954384 -116948902#0 -429310089#0 17503331#0 17503331#1 17503331#2 17503331#3 17503331#4 17503331#5 17503331#6 17503331#7 173679259 316471803#0 316471803#1 316471803#2 316471803#3 316471803#4 316471803#5 316471803#6 316471803#7 316471803#8 316471803#9 316471803#10 316471803#11 316471803#12 316471803#13 316471803#14 316471803#15 316471803#16 316471803#17 316471803#18 316471803#19 316471803#20 316471803#21 316471803#22 316471803#23 316471803#24 316471803#25 316471803#26 316471803#27 316471803#28 316471803#29 316471803#30 316471803#31 316471803#32 319803737 173986884 341676628#0 341676628#1 341676628#2 341676628#3 341676628#4 341676628#5 341676628#6 341676628#7 341676628#8 341676628#9 341676628#10 341676628#11 -670352783 319652399#6 319652399#7 376730903#0 -1098408845 -119573380#0 119573411#0 119573411#1 119573411#2 119573411#3 119573411#4 119573411#5 119573399#3 119573399#4 119573399#5 119573399#6 119573399#7 119573399#8 -119742022#1"/>
    </vehicle>
    <vehicle id="7" depart="7.00">
        <route edges="119742029#0 -119742029#0 -119741962#3 -119741962#2 119742023#3 119742023#4 119573411#3 119573456#0 119573456#1 119573456#2 119573456#3 -119573405 638010860 116953596#0 116953596#1 116953596#2 116953596#3 116953596#4 116953596#5 116953596#6 116953596#7 325468032#0 325468032#1 325468032#2 325468032#3 325468032#4 325468032#5 325468032#6 325468032#7 325468032#8 325468032#9 325468032#10 325468032#11 325468032#12 325468032#13 325468032#14 325468032#15 325468032#16 325468032#17 325468032#18 325468032#19 325468032#20 325468032#21 325468032#22 325468032#23 325468032#24 187195959#0 187195959#1 187195959#2 187195959#3 187195959#4 187195959#5 119441956#0 119442075#0 119442075#1"/>
    </vehicle>
    <vehicle id="8" depart="8.00">
        <route edges="-186174889 -429310043#2 -429310043#1 68530985#1 68530985#2 -68530976#1 -68530976#0 -316471804#8 -316471804#7 -316471804#6 -316471804#5 -316471804#4 -316471804#3 -316471804#2 -316471804#1 -316471804#0 316471806#0 428624430#0 428624430#1 428624430#2 428624430#3 428624430#4 428624430#5 428624430#6 428624430#7 116974717#0 116974717#1 -68543050#2 -68543050#1 -68543042#3 -68543042#2 -68543042#1 339429575#14 339429575#15 339429575#16 339429575#17 339429575#18 320476821#0 320476821#1 320476821#2 320476821#3 320476821#4 320476821#5 320476821#6 119546828#2"/>
    </vehicle>
    <vehicle id="10" depart="10.00">
        <route edges="344175967#2 344175967#3 344175967#4 344175967#5 116953608#0 116953608#1 116953608#2 116953608#3 116953608#4 116953608#5 116953608#6 116953608#7 116953608#8 116953608#9 325468032#24 437878320#0 437878320#1 437878320#2 437878320#3 437878320#4 437878320#5 437878320#6 437878320#7 437878320#8 437878320#9 437878320#10 437878320#11 437878320#12 437878320#13 437878320#14 437878320#15 437878320#16 437878320#17 437878320#18 116992008#6 116992008#7 116992008#8 116992008#9 116992008#10 116992008#11 116992008#12 116992008#13 437843102 316471801#8 -68556496#4 -186954381 186954381"/>
    </vehicle>
    <vehicle id="11" depart="11.00">
        <route edges="-602687086#1 119537583#1 119537577#0 -119537557#12 -119537557#11 -119537557#10 -119537557#9 -119537557#8 -119537557#7 -119537557#6 -119537557#5 -119537557#4 -119537557#3 -119537557#2 -119537557#1 -119537557#0 315553406#5 315553406#6 315553406#7 315553406#8 315553406#9 315553406#10 315553406#11 315553406#12 315553406#13 317137440 323237200#0 323237200#1 323237200#2 323237200#3 323237200#4 -119562247#12 -119562247#11 -119562311#1 -119562240#3"/>
    </vehicle>
    <vehicle id="12" depart="12.00">
        <route edges="68551994#4 -68551994#4 -68551999 68551997#2 68551997#3 68551997#4 68551997#5 68551997#6 68526688#10 68526688#11 68526688#12 68540183#20 68540183#21 68540183#22 68540183#23 68540183#24 68540183#25 187195959#1 187195959#2 187195959#3 187195959#4 187195959#5 187195959#6 187195959#7 187195959#8 187195959#9 187195959#10 344175967#5 344175967#6 119441964#0 119441964#1 119441964#2 119441964#3 119441964#4 119441964#5 119441964#6 119441964#7 -119524861#3 -119524861#2 -119524843#7 187195940#2 -317137442 -119524882#1 -119524882#0 119537561 315553406#0 315553406#1 315553406#2 315553406#3 315553406#4 315553406#5 315553406#6 315553406#7 315553406#8 315553406#9 315553406#10 315553406#11 315553406#12 315553406#13 317137443#0 317137443#1 317137443#2 317137443#3 317137443#4 317137443#5 317137443#6 -119562192#13 -119562192#12 -119562192#11 -119562192#10 -119562189#5 602681083#0 602681081#0 -602681082#3 602682213#0 602682213#1 602682213#2 602682213#3 602682213#4 602682213#5 602682213#6 -602682213#6"/>
    </vehicle>
    <vehicle id="13" depart="13.00">
        <route edges="-119442055 186793708#3 186793708#4 186793708#5 186793708#6 186793708#7 186793708#8 -68540178#1 -68540178#0 344353322#12 344353322#13 339429576#0 339429576#1 339429576#2 339429576#3 339429576#4 344175967#0 344175967#1 344175967#2 344175967#3 344175967#4 344175967#5 344175967#6 344175967#7 344175967#8 -119442086#9 -119442086#8 -119442086#7 -119442054#4 -119442054#3 -119442092#4 -119442092#3 -119442092#2"/>
    </vehicle>
    <vehicle id="14" depart="14.00">
        <route edges="437671317 338364082#2 -437671316#1 316471803#31 316471803#32 319803737 173986884 341676628#0 341676628#1 341676628#2 341676628#3 341676628#4 341676628#5 341676628#6 341676628#7 341676628#8 341676628#9 341676628#10 341676628#11 341676628#12 341676628#13 341676628#14 341676628#15 341676628#16 116953596#0 116953596#1 116953596#2 116953596#3 116953596#4 116953596#5 116953596#6 116953596#7 325468031#0 325468031#1 325468031#2 325468031#3 325468031#4 325468031#5 325468031#6 325468031#7 325468031#8 325468031#9 325468031#10 1152783456 119442036 366206854#0 366206854#1 366206854#2 315561705#0 315561705#1 315561705#2 315561705#3 315561705#4 315561705#5 317137443#0 317137443#1 317137443#2 317137443#3 317137443#4 317137443#5 317137443#6 317137443#7 317137443#8 317137443#9 317137443#10 317137443#11 119562193#1 119562193#2"/>
    </vehicle>
    <vehicle id="15" depart="15.00">
        <route edges="344175967#8 119442086#10 550165813#2 187195944#0 187195944#1 187195973#6"/>
    </vehicle>
    <vehicle id="16" depart="16.00">
        <route edges="119442054#6 187195946#5 -187195944#3 -187195944#2 -187195944#1 -187195944#0 550165813#3 550165813#4 116953608#1 116953608#2 116953608#3 116953608#4 116953608#5 116953608#6 116953608#7 116953608#8 116953608#9 325468032#24 437878320#0 437878320#1 437878320#2 437878320#3 437878320#4 437878320#5 437878320#6 437878320#7 437878320#8 437878320#9 437878320#10 437878320#11 437878320#12 437878320#13 437878320#14 437878320#15 437878320#16 437878320#17 437878320#18 116992008#6 116992008#7 116992008#8 116992008#9 116992008#10 68526688#0 68526688#1 68526688#2 68526688#3 -68556487#1 68556487#1"/>
    </vehicle>
    <vehicle id="17" depart="17.00">
        <route edges="-68540169#0 -428624441#1 -428624441#0 -68540178#9 68540165#7 68540165#8 550166693#5 550166693#6 550166693#7 550166693#8 550166693#9 314794532 339429576#0 68543671#0 68543671#1 68543667#0 68543667#1 344175969#1 344175969#2 119441966#0 119441966#1 119441966#2 119441966#3 119441966#4 119441966#5 119441966#6 119441966#7 119441966#8 119441966#9 119441966#10 119442083#0 119442083#1 119442083#2 119442083#3 119442083#4 119442083#5 119442083#6 -119524882#1 -119524882#0 119537561 315553406#0 315553406#1 315553406#2 315553406#3 315553406#4 315553406#5 315553406#6 315553406#7 119524813"/>
    </vehicle>
    <vehicle id="18" depart="18.00">
        <route edges="429310055#8 429310055#9 429310055#10 429310055#11 429310055#12 429310055#13 429310055#14 429310055#15 429310055#16 429310055#17 429310055#18 429310055#19 429310055#20 429310055#21 68560876#0 68560876#1 68560876#2 68560876#3 68560876#4 68560876#5 68560876#6 68560876#7 68560876#8 68560876#9 68560876#10 68560876#11 68560876#12 68560876#13 68560876#14 68560876#15 68560876#16 68560876#17 68560876#18 316471803#32 319803737 173986884 341676628#0 341676628#1 341676628#2 341676628#3 341676628#4 341676628#5 341676628#6 341676628#7 341676628#8 341676628#9 341676628#10 341676628#11 341676628#12 341676628#13 341676628#14 341676628#15 341676628#16 116953596#0 116953596#1 116953596#2 116953596#3 116953596#4 116953596#5 116953596#6 116953596#7 325468031#0 325468031#1 325468031#2 325468031#3 325468031#4 325468031#5 325468031#6 325468031#7 325468031#8 325468031#9 325468031#10 1152783456 119442036 366206854#0 366206854#1 366206854#2 315561705#0 315561705#1 315561705#2 315561705#3 315561705#4 315561705#5 317137440 323237200#0 323237200#1 323237200#2 323237200#3 602672301#0 602672301#1 602672301#2 602672301#3 119562165#0 119562165#1 429391900#0 429391900#1 429391900#2 429391900#3 -429469560#1 119562263#0"/>
    </vehicle>
    <vehicle id="19" depart="19.00">
        <route edges="550166693#8 550166693#9 314794532 339429576#0 68543671#0 68543671#1 68543667#0 68543667#1 344175969#1 344175969#2 119441966#0 119441966#1 119441966#2 119441966#3 119441966#4 119441966#5 119441966#6 119441966#7 119441966#8 119441966#9 119441966#10 119442083#0 119442083#1 119442083#2 119442083#3 119442083#4 119442083#5 119442083#6 -119524882#1 -119524882#0 119537561 315553406#0 315553406#1 315553406#2 315553406#3 -119537579#3 -119537579#2 -119537579#1 -119537579#0 -119537531#0 -119537548#3 -119537548#2 -119537548#1 -119537548#0 119537548#0"/>
    </vehicle>
    <vehicle id="20" depart="20.00">
        <route edges="187076640#0 187076640#1 187076640#2 187076683 187076730#0 187076730#1 187076730#2 -187076695#0 187076738#0 187076738#1 187076738#2 187076638#0 187076638#1 187076638#2 187076638#3 187076638#4 187076638#5 187076638#6 187076638#7 -187076712#0 187076715#1 187076715#2 314746209#11 314746209#12 314746209#13 314746209#14 314746209#15 314746209#16 314746209#17 314746209#18 437672215 316471803#6 316471803#7 -116953579#4 -116953579#3 -116953579#2 -116953579#1 -116953579#0"/>
    </vehicle>
    <vehicle id="21" depart="21.00">
        <route edges="-186793696#0 119524853#4 119524853#5 119524853#6 -119441943#7 -119441943#6 -119441943#5 -119441943#4 -119441943#3 -119441943#2 119442054#11 119442054#12 320517683#6 320517683#7 320517683#8 320517683#9 761590289 319649659#0 319649659#1 319649659#2 319649659#3 319649659#4 319649659#5 319649659#6 319649659#7 319649659#8 549566270 549566268#0 549566268#1 549566268#2 549566268#3 549566268#4 550166691 550166690#0 550166690#1 -637987393#2 -637987393#1 -637987393#0 -428624429#5"/>
    </vehicle>
    <vehicle id="22" depart="22.00">
        <route edges="-119441978#2 -119442088#2 -119442088#1 -119442088#0 429469553#0 429469553#1 429469553#2 429469553#3 429469553#4 429469553#5 429469553#6 429469553#7 429469553#8 429469553#9 429469553#10 429469553#11 429469553#12 -323237200#3 -323237200#2 -323237200#1 -323237200#0 -317137440 -315553406#13 -315553406#12 -315553406#11 -315553406#10 -315553406#9 -315553406#8 -315553406#7 119524877#0 119524877#1 119524877#2 119524872#0 119524872#1 119524872#2 119524872#3 119524872#4 119524872#5 119524872#6 119524872#7 119524872#8 119524872#9 119524872#10 -119441966#10 -119441966#9 -119441966#8 -119441966#7 -119441966#6 -119441966#5 -834755981 186793751#0 186793751#1 186793762 -186793787#0 -186793793"/>
    </vehicle>
    <vehicle id="23" depart="23.00">
        <route edges="-119442093#1 -119441963#3 -119441963#2 187195945#3 187195945#4 119442047#10 119442047#11 119442047#12 -119524849#4 -119524849#3 -119524849#2 -119524849#1 -119524849#0 315553410#0 315553410#1 315553410#2 -119524877#1 -119524877#0 315553406#7 315553406#8 315553406#9 -315553406#9"/>
    </vehicle>
    <vehicle id="24" depart="24.00">
        <route edges="119573448#0 119573448#1 119573448#2 1153345285 119622383#9 119622383#10 119622383#11 119573453#0 119573453#1 -328619474 -328620365 119562230#0 119562230#1 119562230#2 119562230#3 119562230#4 119562230#5 119562230#6 119562230#7 323714543#2 323714543#3 323714543#4 323714543#5 -119562191#13 -119562191#12 -119562191#11 -119562191#10 -119562191#9 -119562191#8 -119562191#7 -119562191#6 -119562191#5 -1152775335 -1152775334 -670350253 -119562208 17503330#3 17503330#4 17503330#5 17503330#6 319652399#0 319652399#1 319652399#2 319652399#3 319652399#4 319652399#5 319652399#6 319652399#7 319652399#8 319652399#9 319652399#10 319652399#11 319652399#12 319652399#13 319652399#14 173986882 116992050#0 116992050#1 332736172#0 332736172#1 332736172#2 332736172#3 332736172#4 332736172#5 332736172#6 332736172#7 332736172#8 332736172#9 332736172#10 116992008#0 116992008#1 116992008#2 116992008#3 116992008#4 116992008#5 116992008#6 116992008#7 116992008#8 116992008#9 116992008#10 116992008#11 116992008#12 116992008#13 116992008#14 116992008#15 116992008#16 116992008#17 116992008#18 116992008#19 116992008#20 116992008#21 116992008#22 116992008#23 116992008#24 320523917#0 320523917#1 320523917#2 320523917#3 320523917#4 320523917#5 320523917#6 320523917#7 320523917#8 320523917#9 339579724 68552082#0 68552082#1 68534848#1 68534848#2 -68534832#4"/>
    </vehicle>
    <vehicle id="25" depart="25.00">
        <route edges="-68534842#0 -68552075#6 -68552067#5 -68552067#4 -68552067#3 -68552067#2 -68552067#1 -68552067#0 -68552012#6 -68552012#5 68551990#1 1152801369 125729975#0 125729975#1 125729975#2 125729975#3 125729975#4 125729975#5 68556496#0 68556496#1 68556496#2 68556496#3 68556496#4 316471801#9 316471801#10 316471801#11 316471801#12 316471801#13 316471801#14 316471801#15 -116992002#6 -116992002#5 -116992002#4 -116992002#3 -116992002#2 -116992002#1 -116992002#0 68560876#7 68560876#8 68560876#9 68560876#10 68560876#11 68560876#12 68560876#13 68560876#14 68560876#15 68560876#16 68560876#17 437671316#0 437671316#1 314746209#0 437671319#0 437671319#1 437671319#2 437671319#3 437671319#4 437671319#5 437671319#6 437671319#7 370053547#0 370053547#1 163830893#0 163830893#1 -163830893#1"/>
    </vehicle>
    <vehicle id="26" depart="26.00">
        <route edges="-187195942#5 -187195942#4 -187195942#3 119442054#10 119442054#11 119442054#12 119442054#13 344175972#3 68543668#0 68543668#1 68543668#2 68543671#1 68543671#2 -119441946#1 -119441946#0 339429575#5 -428624442#7 -428624442#6 -428624442#5 -428624442#4 -428624442#3 -428624442#2 -428624442#1 -428624442#0 -68540168#6 -68540168#5 -68540168#4 -68540168#3 68540181#3 68540181#4"/>
    </vehicle>
    <vehicle id="27" depart="27.00">
        <route edges="119741996#0 -119742048#5 -119742048#4 -119742048#3 -119742048#2 -119742048#1 -119742048#0 119742023#0 119742023#1 119742023#2 119742023#3 119742023#4 119573411#3 119573456#0 119573456#1 119573456#2 119573456#3 -119573405 638010860 116953596#0 116953596#1 116953596#2 116953596#3 116953596#4 116953596#5 116953596#6 116953596#7 325468031#0 325468031#1 325468031#2 325468031#3 325468031#4 325468031#5 325468031#6 325468031#7 325468031#8 325468031#9 325468031#10 1152783456 119442036 366206854#0 366206854#1 366206854#2 315561705#0 315561705#1 315561705#2 315561705#3 315561705#4 315561705#5 317137440 323237200#0 323237200#1 323237200#2 323237200#3 602672301#0 602672301#1 602672301#2 602672301#3 119562165#0 119562165#1 119562165#2 119562165#3 119562165#4 119562261#1 119562232#4"/>
    </vehicle>
    <vehicle id="28" depart="28.00">
        <route edges="-119562286#0 119562179#1 119562179#2 119562179#3 -119562294#4 -119562294#3 -119562294#2 -119562294#1 315561705#1 315561705#2 315561705#3 315561705#4 315561705#5 -315553406#13 -315553406#12 -315553406#11 -315553406#10 -315553406#9 -315553406#8 -315553406#7 119524877#0 119524877#1 119524877#2 119524872#0 119524872#1 119524872#2 119524872#3 119524872#4 119524861#1 119524861#2 119524861#3 -119441964#7 -119441964#6 -119441964#5 -119441964#4 -119441964#3 -119441964#2 -119441964#1 187195973#5"/>
    </vehicle>
    <vehicle id="29" depart="29.00">
        <route edges="-119562253#3 -119562278#2 -119562278#1 -119562278#0 317310791#2 317310791#3 317310791#4 317310791#5 317310791#6 317310791#7 317310791#8 317310791#9 317310791#10 317310791#11 -317137440 -315553406#13 -315553406#12 -315553406#11 -315553406#10 -315553406#9 -315553406#8 -315553406#7 119524877#0 119524877#1 119524877#2 119524872#0 119524872#1 119524872#2 119524872#3 119524872#4 119524872#5 119524872#6 119524872#7 119524872#8 119524872#9 119524872#10 -119441966#10 -119441966#9 -119441966#8 -119441966#7 -119441966#6 -119441966#5 -119441966#4 -119441966#3 -119441966#2 -119441966#1 -119441966#0 344175969#3 344175969#4 344175969#5 344175969#6 -68543664#1 -68543664#0 -68543671#3 -119441946#1 344353322#11 68540178#0 68540178#1 68540178#2 -68540178#2"/>
    </vehicle>
    <vehicle id="30" depart="30.00">
        <route edges="885284528#0 885284528#1 571053946 68530979#3 68530982#0 68530982#1 429310033#0 429310033#1 429310033#2 429310033#3 429310033#4 429310033#5 429310033#6 429310033#7 429310033#8 429310033#9 429310033#10 330424995#6 -316471804#8 -316471804#7 -316471804#6 -316471804#5 -316471804#4 -316471804#3 -316471804#2 -316471804#1 -316471804#0 316471806#0 316471806#1 316471806#2 550166692 550166693#0 550166693#1 550166693#2 550166693#3 550166693#4 550166693#5 550166693#6 550166693#7 550166693#8 550166693#9 314794532 339429576#0 339429576#1 339429576#2 339429576#3 339429576#4 344175967#0 344175967#1 344175967#2 344175967#3 344175967#4 344175967#5 344175967#6 344175967#7 344175967#8 344175967#9 550165812 550165811#0 550165811#1 314556404 323714543#0 323714543#1 -119562230#7 -119562230#6 -119562230#5 -119562230#4 -119562230#3 -119562230#2 -119562230#1 -119562230#0 328620365 328619474 -119573453#1 -119573453#0 -119622383#11 -119622383#10 -119622383#9 -119622383#8 119573433"/>
    </vehicle>
    <vehicle id="31" depart="31.00">
        <route edges="119524849#2 -119524849#2 -119524849#1 119524872#3 119524872#4 119524872#5 119524872#6 119524872#7 119524872#8 119524872#9 119524872#10 -119441966#10 -119441966#9 -119441966#8 -119441966#7 -119441966#6 -119441966#5 -119441966#4 -119441966#3 -119441966#2 186793702#0 186793702#1 186793702#2"/>
    </vehicle>
    <vehicle id="32" depart="32.00">
        <route edges="429469564#1 429469564#2 429469564#3 429469564#4 429469564#5 429469564#6 429469564#7 429469564#8 429469564#9 429469564#10 429469564#11 429469564#12 429469564#13 -315553405 -328619464#1 -328619464#0 -323237200#4 -323237200#3 -323237200#2 -323237200#1 -323237200#0 -317137440 -315553406#13 -315553406#12 -315553406#11 -315553406#10 -315553406#9 -315553406#8 -315553406#7 119524877#0 119524877#1 119524877#2 119524872#0 119524872#1 119524872#2 119524872#3 119524872#4 119524872#5 119524872#6 119524872#7 119524872#8 119524872#9 119524872#10 -119441966#10 -119441966#9 -119441966#8 -119441966#7 -119441966#6 186793704#0 186793704#1 -173986883#7 -173986883#6 -173986883#5 -173986883#4 -173986883#3 -173986883#2 -173986883#1 -173986883#0 119442040#4 119442040#5 119442040#6 119442040#7 119442040#8 119524837#0 119524837#1 119524837#2 320476821#3"/>
    </vehicle>
    <vehicle id="33" depart="33.00">
        <route edges="-186793700#2 -186793700#1 -186793700#0 316471804#7 316471805#0 -429310033#11 -429310033#10 -68530983#4 -68530983#3 -68530983#2 -68530983#1 -68530983#0 -964531028 -186174864#3 -186174864#2 -186174864#1 -68560897#2 -68560897#1 -68560897#0 68560896#2 68560896#3 68560896#4 68560896#5 637987392 437673168 186793686#0 -116948964#1 -116948964#0"/>
    </vehicle>
    <vehicle id="34" depart="34.00">
        <route edges="-437789630#2 437789630#2 437789630#3 -437671319#4 -437671319#3 -437671319#2 -437671319#1 -437671319#0 429310048 316471803#29 316471803#30 316471803#31 -116992055#2 -116992055#1 -116992055#0 332736172#1 332736172#2 332736172#3 332736172#4 332736172#5 332736172#6 332736172#7 332736172#8 332736172#9 332736172#10 116992008#0 116992008#1 116992008#2 116992008#3 116992008#4 116992008#5 -437878320#18 -437878320#17 -437878320#16 -437878320#15 -437878320#14 -437878320#13 -437878320#12 -437878320#11 -437878320#10 -437878320#9 -437878320#8 -437878320#7 -437878320#6 -116992014#1 -116992014#0 -187195955 -187195963"/>
    </vehicle>
    <vehicle id="35" depart="35.00">
        <route edges="-163830875#0 -437789627#0 -437671319#2 -437671319#1 -437671319#0 429310048 316471803#29 316471803#30 316471803#31 -116992055#2 -116992055#1 -116992055#0 332736172#1 332736172#2 332736172#3 332736172#4 332736172#5 332736172#6 332736172#7 332736172#8 332736172#9 332736172#10 116992008#0 116992008#1 116992008#2 116992008#3 116992008#4 116992008#5 116992008#6 116992008#7 116992008#8 116992008#9 116992008#10 68526688#0 68526688#1 68526688#2 68526688#3 68526688#4 68526688#5 -125729975#8 -125729975#7 -125729975#6 -125729975#5 -125729975#4 -125729975#3 -125729975#2 -125729975#1 -125729975#0 -1152801369 -68551990#1 -68552012#4 68552057#0 68552057#1 68552057#2 68552057#3 68552057#4 68552057#5 68552057#6 68552057#7 68552057#8 68552057#9 68540187#0 68540187#1 68540187#2"/>
    </vehicle>
    <vehicle id="36" depart="36.00">
        <route edges="602680118#7 602680118#8 -602680118#8 -602680118#7 -602680118#6 -602680118#5 -602680118#4 -602680118#3 602680117 -119562291#10 -119562291#9 -119562291#8 -119562291#7 -119562291#6 -119562291#5 -119562280 -328619465#12 -328619465#11 -328619465#10 -328619465#9 -328619465#8 -328619465#7 -328619465#6 -328619465#5 -328619465#4 -328619465#3 -328619465#2 -328619465#1 -328619465#0 -119562247#12 -119562247#11 -119562247#10 -119562247#9 -119562247#8 -119562247#7 -119562247#6 -119562247#5 -119562247#4 -119562247#3 -119562247#2 -119562247#1 -119562247#0 -328619474 -328620365 119562230#0 119562230#1 119562230#2 119562230#3 119562230#4 119562230#5 119562230#6 119562230#7 323714543#2 323714543#3 323714543#4 323714543#5 -119562191#13 -119562191#12 -119562191#11 -119562191#10 -119562191#9 -119562191#8 -119562191#7 -119562191#6 -119562191#5 -1152775335 -1152775334 -670350253 -119562208 17503330#3 17503330#4 17503330#5 17503330#6 319652399#0 319652399#1 319652399#2 319652399#3 319652399#4 319652399#5 319652399#6 319652399#7 319652399#8 319652399#9 319652399#10 319652399#11 319652399#12 319652399#13 319652399#14 173986882 338364082#0 -437784495"/>
    </vehicle>
    <vehicle id="37" depart="37.00">
        <route edges="163830869 163830877#3 111959159#6 -163830892#7 -163830892#6 -163830892#5 -163830892#4 -163830892#3 -163830892#2 -163830892#1 -163830892#0 -437671316#1 316471803#31 -116992055#2 -116992055#1 -116992055#0 332736172#1 332736172#2 332736172#3 332736172#4 332736172#5 332736172#6 332736172#7 332736172#8 332736172#9 332736172#10 116992008#0 116992008#1 116992008#2 116992008#3 116992008#4 116992008#5 116992008#6 116992008#7 116992008#8 116992008#9 116992008#10 68526688#0 68526688#1 68526688#2 68526688#3 68526688#4 68526688#5 -125729975#8 -125729975#7 -125729975#6 -125729975#5 -125729975#4 -125729975#3 -125729975#2 68552003#5 68551994#3 -68551994#3"/>
    </vehicle>